405
Lattice="30.449999999999996 0.0 0.0 0.0 30.449999999999996 0.0 0.0 0.0 30.449999999999996" Properties=species:S:1:pos:R:3 pbc="F F F"
Ag       5.20326128       9.21501315      15.22500000
Ag       5.15906596      11.21079558      13.23040102
Ag       5.15940311      13.22765608      11.21404371
Ag       5.15906596      11.21079558      17.21959898
Ag       5.11272284      13.20797067      15.22500000
Ag       5.15940311      13.22765608      19.23595629
Ag       5.19533085      15.22465717       9.20779016
Ag       5.11928286      15.22272865      13.21017203
Ag       5.15309272      17.22207113      11.20837979
Ag       5.11928286      15.22272865      17.23982797
Ag       5.11944947      17.23735721      15.22500000
Ag       5.19533085      15.22465717      21.24220984
Ag       5.15309272      17.22207113      19.24162021
Ag       5.15297292      19.24150136      13.22772020
Ag       5.15297292      19.24150136      17.22227980
Ag       5.19489538      21.24295520      15.22500000
Ag       9.20699573       5.19495808      15.22500000
Ag       7.13048906       9.15748991      13.19467816
Ag       9.15249421       7.12811969      13.19188473
Ag       9.14345179       9.14781421      11.16800049
Ag       7.16524412       7.16592336      15.22500000
Ag       7.13048906       9.15748991      17.25532184
Ag       9.15249421       7.12811969      17.25811527
Ag       9.14325213       9.14233040      15.22500000
Ag       9.14345179       9.14781421      19.28199951
Ag       7.12773178      13.19199390       9.15273483
Ag       9.14306779      11.16313759       9.14321640
Ag       9.15252913      13.19203014       7.12804697
Ag       7.12162038      11.17895718      11.18122439
Ag       7.15090115      13.20530371      13.21919143
Ag       9.14477311      11.17641248      13.19838049
Ag       9.14395591      13.18539433      11.16203710
Ag       7.16191526      11.19765988      15.22500000
Ag       7.15090115      13.20530371      17.23080857
Ag       9.14477311      11.17641248      17.25161951
Pd       9.16254474      13.19986414      15.22500000
Ag       7.12162038      11.17895718      19.26877561
Ag       7.12773178      13.19199390      21.29726517
Ag       9.14306779      11.16313759      21.30678360
Ag       9.14395591      13.18539433      19.28796290
Ag       9.15252913      13.19203014      23.32195303
Ag       9.20700673      15.22499931       5.19489203
Ag       7.16557956      15.22499810       7.16565090
Ag       7.12815863      17.25770206       9.15296957
Ag       9.14344041      15.22510149       9.14345779
Ag       9.15253374      17.25796829       7.12802345
Ag       7.15132582      15.22257802      11.18867898
Ag       7.13951144      17.23992968      13.20793181
Ag       9.16266222      15.21067973      13.21465917
Ag       9.14406949      17.26040427      11.16729003
Ag       7.14116968      15.21185907      15.22500000
Ag       7.13951144      17.23992968      17.24206819
Ag       9.16266222      15.21067973      17.23534083
Ag       9.16336613      17.25140630      15.22500000
Ag       7.15132582      15.22257802      19.26132102
Ag       7.12815863      17.25770206      21.29703043
Ag       9.14344041      15.22510149      21.30654221
Ag       9.14406949      17.26040427      19.28270997
Ag       7.16557956      15.22499810      23.28434910
Ag       9.20700673      15.22499931      25.25510797
Ag       9.15253374      17.25796829      23.32197655
Ag       9.14311828      19.28638361       9.14342288
Ag       7.11936549      19.27314136      11.17668302
Ag       7.12799004      21.29743106      13.19202999
Ag       9.14402144      19.28682133      13.18538550
Ag       9.14310258      21.30687607      11.16329663
Ag       7.14900227      19.26595893      15.22500000
Ag       7.12799004      21.29743106      17.25797001
Ag       9.14402144      19.28682133      17.26461450
Ag       9.14345671      21.30651121      15.22500000
Ag       7.11936549      19.27314136      19.27331698
Ag       9.14311828      19.28638361      21.30657712
Ag       9.14310258      21.30687607      19.28670337
Ag       9.15253765      23.32199214      13.19203371
Ag       7.16559964      23.28439670      15.22500000
Ag       9.15253765      23.32199214      17.25796629
Ag       9.20700788      25.25511241      15.22500000
Ag      11.20789798       5.15265133      13.22742927
Ag      13.22741810       5.15266370      11.20791660
Ag      11.20789798       5.15265133      17.22257073
Ag      13.20797216       5.11407030      15.22500000
Ag      13.22741810       5.15266370      19.24208340
Ag      11.16311244       9.14336206       9.14358604
Ag      13.19200660       7.12803574       9.15256928
Ag      13.19201635       9.15255147       7.12803779
Ag      11.17626060       7.11967851      11.17669479
Ag      11.16103179       9.14821828      13.18764342
Ag      13.20542069       7.13792064      13.20582439
Ag      13.18515705       9.14435829      11.16351873
Ag      11.18409322       7.14915974      15.22500000
Ag      11.16103179       9.14821828      17.26235658
Ag      13.20542069       7.13792064      17.24417561
Ag      13.19494127       9.16812799      15.22500000
Ag      11.17626060       7.11967851      19.27330521
Ag      11.16311244       9.14336206      21.30641396
Ag      13.19200660       7.12803574      21.29743072
Ag      13.18515705       9.14435829      19.28648127
Ag      13.19201635       9.15255147      23.32196221
Ag      11.20790107      13.22743574       5.15262985
Ag      13.22743542      11.20790172       5.15262900
Ag      11.17643301      11.17642853       7.11922995
Ag      11.16331032      13.18549443       9.14400491
Ag      13.18525951      11.16335720       9.14443951
Ag      13.20565436      13.20565379       7.13752280
Ag      11.15788516      11.16210184      11.16415179
Ag      11.15648062      13.19184892      13.20742674
Ag      13.18776716      11.17355930      13.19439434
Ag      13.18743124      13.19223781      11.17599483
Ag      11.15124883      11.18223914      15.22500000
Ag      11.15648062      13.19184892      17.24257326
Ag      13.18776716      11.17355930      17.25560566
Ag      13.19690747      13.19547562      15.22500000
Ag      11.15788516      11.16210184      19.28584821
Ag      11.16331032      13.18549443      21.30599509
Ag      13.18525951      11.16335720      21.30556049
Ag      13.18743124      13.19223781      19.27400517
Ag      11.17643301      11.17642853      23.33077005
Ag      11.20790107      13.22743574      25.29737015
Ag      13.22743542      11.20790172      25.29737100
Ag      13.20565436      13.20565379      23.31247720
Ag      11.20790157      17.22256375       5.15262865
Ag      13.20797141      15.22499991       5.11406419
Ag      11.18398291      15.22500230       7.14922649
Ag      11.16303746      17.26427845       9.14442431
Ag      13.19964281      15.22481988       9.16368728
Ag      13.20564249      17.24433436       7.13753896
Ag      11.16452083      15.22280537      11.17136142
Ag      11.16893913      17.25341951      13.19429391
Ag      13.19107875      15.22281814      13.19774921
Ag      13.19187304      17.25745950      11.17156617
Ag      11.16701643      15.20984498      15.22500000
Ag      11.16893913      17.25341951      17.25570609
Ag      13.19107875      15.22281814      17.25225079
Ag      13.19076720      17.24982169      15.22500000
Ag      11.16452083      15.22280537      19.27863858
Ag      11.16303746      17.26427845      21.30557569
Ag      13.19964281      15.22481988      21.28631272
Ag      13.19187304      17.25745950      19.27843383
Ag      11.18398291      15.22500230      23.30077351
Ag      11.20790157      17.22256375      25.29737135
Ag      13.20797141      15.22499991      25.33593581
Ag      13.20564249      17.24433436      23.31246104
Ag      13.22743549      19.24209746       5.15262834
Ag      11.17642684      19.27355127       7.11923125
Ag      11.16329065      21.30687050       9.14311942
Ag      13.18547756      19.28678290       9.14405896
Ag      13.19203256      21.29746056       7.12800671
Ag      11.15984458      19.28962010      11.16021799
Ag      11.16319741      21.30595463      13.18549212
Ag      13.19196457      19.27835147      13.19237770
Ag      13.18548353      21.30594015      11.16320652
Ag      11.16699983      19.28315751      15.22500000
Ag      11.16319741      21.30595463      17.26450788
Ag      13.19196457      19.27835147      17.25762230
Ag      13.19990003      21.28673861      15.22500000
Ag      11.15984458      19.28962010      19.28978201
Ag      11.16329065      21.30687050      21.30688058
Ag      13.18547756      19.28678290      21.30594104
Ag      13.18548353      21.30594015      19.28679348
Ag      11.17642684      19.27355127      23.33076875
Ag      13.22743549      19.24209746      25.29737166
Ag      13.19203256      21.29746056      23.32199329
Ag      13.19203295      23.32199335       9.15253874
Ag      11.17643496      23.33079040      11.17643531
Ag      11.20790193      25.29737279      13.22743610
Ag      13.20565339      23.31248341      13.20565366
Ag      13.22743607      25.29737283      11.20790198
Ag      11.18398064      23.30077965      15.22500000
Ag      11.20790193      25.29737279      17.22256390
Ag      13.20565339      23.31248341      17.24434634
Ag      13.20797163      25.33593653      15.22500000
Ag      11.17643496      23.33079040      19.27356469
Ag      13.19203295      23.32199335      21.29746126
Ag      13.22743607      25.29737283      19.24209802
Ag      15.22499745       5.19488974       9.20701007
Ag      15.22498742       5.11408431      13.20797786
Ag      17.22256247       5.15262822      11.20790291
Ag      15.22498742       5.11408431      17.24202214
Ag      17.24201552       5.11407714      15.22500000
Ag      15.22499745       5.19488974      21.24298993
Ag      17.22256247       5.15262822      19.24209709
Ag      15.22499887       9.20700850       5.19488910
Ag      15.22499809       7.16560133       7.16560179
Ag      15.22497765       9.14347841       9.14348357
Ag      17.25796530       7.12800634       9.15253909
Ag      17.25796553       9.15253876       7.12800639
Ag      15.22497567       7.14924152      11.18399897
Ag      15.22456440       9.16350182      13.20007634
Ag      17.24432553       7.13752882      13.20566050
Ag      17.26448276       9.14404874      11.16320649
Ag      15.22467382       7.12768956      15.22500000
Ag      15.22456440       9.16350182      17.24992366
Ag      17.24432553       7.13752882      17.24433950
Ag      17.25009315       9.16325330      15.22500000
Ag      15.22497567       7.14924152      19.26600103
Ag      15.22497765       9.14347841      21.30651643
Ag      17.25796530       7.12800634      21.29746091
Ag      17.26448276       9.14404874      19.28679351
Ag      15.22499809       7.16560133      23.28439821
Ag      15.22499887       9.20700850      25.25511090
Ag      17.25796553       9.15253876      23.32199361
Ag      15.22499968      13.20797165       5.11406411
Ag      17.22256339      11.20790215       5.15262779
Ag      15.22498638      11.18398794       7.14923924
Ag      15.22465131      13.19989795       9.16359782
Ag      17.26448645      11.16320177       9.14404982
Ag      17.24433342      13.20565355       7.13752880
Ag      15.22459156      11.16703940      11.16710197
Ag      15.22502152      13.19546085      13.19534026
Ag      17.25778254      11.17122711      13.19220557
Ag      17.25778356      13.19220806      11.17122921
Ag      15.22502453      11.18108676      15.22500000
Ag      15.22502152      13.19546085      17.25465974
Ag      17.25778254      11.17122711      17.25779443
Ag      17.25451617      13.19545995      15.22500000
Ag      15.22459156      11.16703940      19.28289803
Ag      15.22465131      13.19989795      21.28640218
Ag      17.26448645      11.16320177      21.30595018
Ag      17.25778356      13.19220806      19.27877079
Ag      15.22498638      11.18398794      23.30076076
Ag      15.22499968      13.20797165      25.33593589
Ag      17.22256339      11.20790215      25.29737221
Ag      17.24433342      13.20565355      23.31247120
Ag      15.22499956      17.24202801       5.11406425
Ag      17.24202793      15.22499983       5.11406404
Ag      15.22498722      15.22499339       7.12738118
Ag      15.22497624      17.25008288       9.16327686
Ag      17.25008057      15.22499301       9.16326679
Ag      17.24434548      17.24434583       7.13751674
Ag      15.22458176      15.22483699      11.18146002
Ag      15.22459756      17.25430997      13.19562721
Ag      17.25453061      15.22500227      13.19545762
Ag      17.25776924      17.25778083      11.17124127
Ag      15.22503080      15.22511834      15.22500000
Ag      15.22459756      17.25430997      17.25437279
Ag      17.25453061      15.22500227      17.25454238
Ag      17.25453150      17.25454049      15.22500000
Ag      15.22458176      15.22483699      19.26853998
Ag      15.22497624      17.25008288      21.28672314
Ag      17.25008057      15.22499301      21.28673321
Ag      17.25776924      17.25778083      19.27875873
Ag      15.22498722      15.22499339      23.32261882
Ag      15.22499956      17.24202801      25.33593575
Ag      17.24202793      15.22499983      25.33593596
Ag      17.24434548      17.24434583      23.31248326
Ag      15.22499993      21.24299197       5.19488740
Ag      17.22256385      19.24209799       5.15262712
Ag      15.22499908      19.26601800       7.14922006
Ag      15.22499915      21.30653698       9.14346282
Ag      17.26450436      19.28680380       9.14403829
Ag      17.25796643      21.29746173       7.12800557
Ag      15.22497761      19.28310844      11.16688658
Ag      15.22498658      21.28672604      13.19990591
Ag      17.25777271      19.27875762      13.19221466
Ag      17.26450456      21.30596171      11.16319589
Ag      15.22465590      19.26844511      15.22500000
Ag      15.22498658      21.28672604      17.25009409
Ag      17.25777271      19.27875762      17.25778534
Ag      17.25008818      21.28673368      15.22500000
Ag      15.22497761      19.28310844      19.28311342
Ag      15.22499915      21.30653698      21.30653718
Ag      17.26450436      19.28680380      21.30596171
Ag      17.26450456      21.30596171      19.28680411
Ag      15.22499908      19.26601800      23.30077994
Ag      15.22499993      21.24299197      25.25511260
Ag      17.22256385      19.24209799      25.29737288
Ag      17.25796643      21.29746173      23.32199443
Ag      15.22499995      23.28440020       7.16559978
Ag      15.22499997      25.25511262       9.20700799
Ag      17.25796644      23.32199443       9.15253826
Ag      15.22499953      23.30078023      11.18398145
Ag      15.22499998      25.33593654      13.20797165
Ag      17.24434598      23.31248357      13.20565376
Ag      17.22256388      25.29737290      11.20790198
Ag      15.22499971      23.32263782      15.22500000
Ag      15.22499998      25.33593654      17.24202835
Ag      17.24434598      23.31248357      17.24434624
Ag      17.24202834      25.33593655      15.22500000
Ag      15.22499953      23.30078023      19.26601855
Ag      15.22499997      25.25511262      21.24299201
Ag      17.25796644      23.32199443      21.29746174
Ag      17.22256388      25.29737290      19.24209802
Ag      15.22499995      23.28440020      23.28440022
Ag      19.24209708       5.15262764      13.22743651
Ag      19.24209708       5.15262764      17.22256349
Ag      21.24299196       5.19488736      15.22500000
Ag      19.28669960       9.14310668       9.14310680
Ag      19.27356390       7.11920868      11.17643561
Ag      19.28680389       9.14403762      13.18549464
Ag      21.29746170       7.12800554      13.19203354
Ag      21.30689361       9.14310634      11.16329959
Ag      19.26601796       7.14921907      15.22500000
Ag      19.28680389       9.14403762      17.26450536
Ag      21.29746170       7.12800554      17.25796646
Ag      21.30653797       9.14346198      15.22500000
Ag      19.27356390       7.11920868      19.27356439
Ag      19.28669960       9.14310668      21.30689320
Ag      21.30689361       9.14310634      19.28670041
Ag      19.24209767      13.22743611       5.15262745
Ag      19.27356414      11.17643543       7.11920864
Ag      19.28680399      13.18549458       9.14403773
Ag      21.30689361      11.16329958       9.14310635
Ag      21.29746172      13.19203353       7.12800555
Ag      19.28999915      11.16000013      11.16000026
Ag      19.27876878      13.19220801      13.19220826
Ag      21.30596252      11.16319536      13.18549459
Ag      21.30596253      13.18549459      11.16319537
Ag      19.28312933      11.16686964      15.22500000
Ag      19.27876878      13.19220801      17.25779174
Ag      21.30596252      11.16319536      17.26450541
Ag      21.28674643      13.19989899      15.22500000
Ag      19.28999915      11.16000013      19.28999974
Ag      19.28680399      13.18549458      21.30596227
Ag      21.30689361      11.16329958      21.30689365
Ag      21.30596253      13.18549459      19.28680463
Ag      19.27356414      11.17643543      23.33079136
Ag      19.24209767      13.22743611      25.29737255
Ag      21.29746172      13.19203353      23.32199445
Ag      19.24209799      17.22256387       5.15262711
Ag      21.24299201      15.22499999       5.19488735
Ag      19.26601829      15.22499983       7.14921939
Ag      19.28680388      17.26450509       9.14403787
Ag      21.30653799      15.22499999       9.14346199
Ag      21.29746175      17.25796646       7.12800555
Ag      19.28312979      15.22499993      11.16686960
Ag      19.27876925      17.25779177      13.19220810
Ag      21.28674640      15.22500000      13.19989899
Ag      21.30596253      17.26450540      11.16319537
Ag      19.26878414      15.22499975      15.22500000
Ag      19.27876925      17.25779177      17.25779190
Ag      21.28674640      15.22500000      17.25010101
Ag      21.28674641      17.25010100      15.22500000
Ag      19.28312979      15.22499993      19.28313040
Ag      19.28680388      17.26450509      21.30596213
Ag      21.30653799      15.22499999      21.30653801
Ag      21.30596253      17.26450540      19.28680463
Ag      19.26601829      15.22499983      23.30078061
Ag      19.24209799      17.22256387      25.29737289
Ag      21.24299201      15.22499999      25.25511265
Ag      21.29746175      17.25796646      23.32199445
Ag      19.27356470      19.27356471       7.11920826
Ag      19.28670039      21.30689364       9.14310635
Ag      21.30689365      19.28670041       9.14310634
Ag      19.28999917      19.28999950      11.16000040
Ag      19.28680409      21.30596218      13.18549475
Ag      21.30596254      19.28680463      13.18549459
Ag      21.30689365      21.30689366      11.16329959
Ag      19.28312992      19.28313029      15.22500000
Ag      19.28680409      21.30596218      17.26450525
Ag      21.30596254      19.28680463      17.26450541
Ag      21.30653800      21.30653801      15.22500000
Ag      19.28999917      19.28999950      19.28999960
Ag      19.28670039      21.30689364      21.30689365
Ag      21.30689365      19.28670041      21.30689366
Ag      21.30689365      21.30689366      19.28670041
Ag      19.27356470      19.27356471      23.33079174
Ag      19.27356471      23.33079175      11.17643528
Ag      19.24209802      25.29737291      13.22743611
Ag      21.29746175      23.32199445      13.19203354
Ag      19.26601860      23.30078074      15.22500000
Ag      19.24209802      25.29737291      17.22256389
Ag      21.29746175      23.32199445      17.25796646
Ag      21.24299202      25.25511266      15.22500000
Ag      19.27356471      23.33079175      19.27356472
Ag      23.32199446       9.15253824      13.19203354
Ag      23.28440026       7.16559974      15.22500000
Ag      23.32199446       9.15253824      17.25796646
Ag      25.25511267       9.20700797      15.22500000
Ag      23.32199446      13.19203354       9.15253824
Ag      23.33079177      11.17643527      11.17643527
Ag      23.31248416      13.20565359      13.20565359
Ag      25.29737292      11.20790197      13.22743611
Ag      25.29737292      13.22743611      11.20790197
Ag      23.30078104      11.18398109      15.22500000
Ag      23.31248416      13.20565359      17.24434641
Ag      25.29737292      11.20790197      17.22256389
Ag      25.33593658      13.20797165      15.22500000
Ag      23.33079177      11.17643527      19.27356473
Ag      23.32199446      13.19203354      21.29746176
Ag      25.29737292      13.22743611      19.24209803
Ag      23.28440026      15.22500000       7.16559974
Ag      23.32199446      17.25796646       9.15253824
Ag      25.25511267      15.22500000       9.20700797
Ag      23.30078104      15.22500000      11.18398109
Ag      23.31248416      17.24434641      13.20565359
Ag      25.33593658      15.22500000      13.20797165
Ag      25.29737292      17.22256389      11.20790197
Ag      23.32263849      15.22500000      15.22500000
Ag      23.31248416      17.24434641      17.24434641
Ag      25.33593658      15.22500000      17.24202835
Ag      25.33593658      17.24202835      15.22500000
Ag      23.30078104      15.22500000      19.26601891
Ag      23.32199446      17.25796646      21.29746176
Ag      25.25511267      15.22500000      21.24299203
Ag      25.29737292      17.22256389      19.24209803
Ag      23.28440026      15.22500000      23.28440026
Ag      23.33079177      19.27356473      11.17643527
Ag      23.32199446      21.29746176      13.19203354
Ag      25.29737292      19.24209803      13.22743611
Ag      23.30078105      19.26601891      15.22500000
Ag      23.32199446      21.29746176      17.25796646
Ag      25.29737292      19.24209803      17.22256389
Ag      25.25511267      21.24299203      15.22500000
Ag      23.33079177      19.27356473      19.27356473
Ag      23.28440026      23.28440026      15.22500000
