405
Lattice="30.449999999999996 0.0 0.0 0.0 30.449999999999996 0.0 0.0 0.0 30.449999999999996" Properties=species:S:1:pos:R:3 pbc="F F F"
Pd       5.30734659       9.25968807      15.22500000
Ag       5.14909553      11.18963426      13.25271938
Ag       5.15263661      13.22028769      11.21562578
Ag       5.14909553      11.18963426      17.19728062
Ag       5.11391342      13.20903550      15.22500000
Ag       5.15263661      13.22028769      19.23437422
Ag       5.19363649      15.22252973       9.20963519
Ag       5.11573510      15.22525892      13.20812782
Ag       5.15207479      17.22244916      11.20811794
Ag       5.11573510      15.22525892      17.24187218
Ag       5.11577061      17.24144546      15.22500000
Ag       5.19363649      15.22252973      21.24036481
Ag       5.15207479      17.22244916      19.24188206
Ag       5.15194210      19.24172351      13.22749646
Ag       5.15194210      19.24172351      17.22250354
Ag       5.19316932      21.24302341      15.22500000
Ag       9.19779009       5.20332029      15.22500000
Ag       7.12239504       9.15192503      13.19361806
Ag       9.14810906       7.13055871      13.19659820
Ag       9.13961189       9.14315665      11.16738806
Ag       7.14393925       7.18111673      15.22500000
Ag       7.12239504       9.15192503      17.25638194
Ag       9.14810906       7.13055871      17.25340180
Ag       9.14184438       9.14232366      15.22500000
Ag       9.13961189       9.14315665      19.28261194
Ag       7.12747032      13.19167729       9.15538135
Ag       9.14162515      11.16336584       9.14535428
Ag       9.15282961      13.19282658       7.12880274
Ag       7.11443461      11.17505655      11.18286202
Ag       7.13358082      13.20299423      13.20452586
Ag       9.14511103      11.16097987      13.18429576
Ag       9.14240969      13.18444637      11.16463929
Ag       7.16257758      11.19461849      15.22500000
Ag       7.13358082      13.20299423      17.24547414
Ag       9.14511103      11.16097987      17.26570424
Ag       9.16658748      13.20290503      15.22500000
Ag       7.11443461      11.17505655      19.26713798
Ag       7.12747032      13.19167729      21.29461865
Ag       9.14162515      11.16336584      21.30464572
Ag       9.14240969      13.18444637      19.28536071
Ag       9.15282961      13.19282658      23.32119726
Ag       9.20691326      15.22491790       5.19333515
Ag       7.16557517      15.22456637       7.16642545
Ag       7.12796648      17.25630592       9.15342736
Ag       9.14343380      15.22450289       9.14430305
Ag       9.15303423      17.25680664       7.12826319
Ag       7.14859846      15.22323903      11.18520245
Ag       7.13835246      17.24463238      13.20525304
Ag       9.16148187      15.22321614      13.19944548
Ag       9.14376141      17.26353187      11.16339789
Ag       7.12942927      15.22401333      15.22500000
Ag       7.13835246      17.24463238      17.24474696
Ag       9.16148187      15.22321614      17.25055452
Ag       9.16291706      17.25067065      15.22500000
Ag       7.14859846      15.22323903      19.26479755
Ag       7.12796648      17.25630592      21.29657264
Ag       9.14343380      15.22450289      21.30569695
Ag       9.14376141      17.26353187      19.28660211
Ag       7.16557517      15.22456637      23.28357455
Ag       9.20691326      15.22491790      25.25666485
Ag       9.15303423      17.25680664      23.32173681
Ag       9.14299900      19.28593576       9.14309117
Ag       7.11952781      19.27302210      11.17692859
Ag       7.12816365      21.29688399      13.19307487
Ag       9.14405179      19.28676946      13.18594438
Ag       9.14304089      21.30695140      11.16395471
Ag       7.14925313      19.26589620      15.22500000
Ag       7.12816365      21.29688399      17.25692513
Ag       9.14405179      19.28676946      17.26405562
Ag       9.14382714      21.30616385      15.22500000
Ag       7.11952781      19.27302210      19.27307141
Ag       9.14299900      19.28593576      21.30690883
Ag       9.14304089      21.30695140      19.28604529
Ag       9.15310564      23.32183475      13.19307499
Ag       7.16571075      23.28428738      15.22500000
Ag       9.15310564      23.32183475      17.25692501
Ag       9.20696637      25.25683563      15.22500000
Ag      11.20568694       5.15380684      13.22862885
Ag      13.22679419       5.15238660      11.20859298
Ag      11.20568694       5.15380684      17.22137115
Ag      13.20810866       5.11568383      15.22500000
Ag      13.22679419       5.15238660      19.24140702
Ag      11.16235963       9.14318893       9.14493436
Ag      13.19257554       7.12834323       9.15351578
Ag      13.19275174       9.15313504       7.12854429
Ag      11.17493319       7.12029198      11.17847489
Ag      11.16325041       9.14375069      13.18609529
Ag      13.20507338       7.13810489      13.20519331
Ag      13.18574962       9.14398958      11.16321229
Ag      11.18468879       7.14964849      15.22500000
Ag      11.16325041       9.14375069      17.26390471
Ag      13.20507338       7.13810489      17.24480669
Ag      13.19889820       9.16297020      15.22500000
Ag      11.17493319       7.12029198      19.27152511
Ag      11.16235963       9.14318893      21.30506564
Ag      13.19257554       7.12834323      21.29648422
Ag      13.18574962       9.14398958      19.28678771
Ag      13.19275174       9.15313504      23.32145571
Ag      11.20815792      13.22744317       5.15204783
Ag      13.22742349      11.20820495       5.15201499
Ag      11.17661194      11.17682470       7.12004992
Ag      11.16267224      13.18559015       9.14451311
Ag      13.18552346      11.16304740       9.14432170
Ag      13.20516626      13.20520337       7.13833466
Ag      11.15853872      11.15927626      11.16069594
Ag      11.17049820      13.19111454      13.19255462
Ag      13.19201991      11.17182241      13.19215183
Ag      13.19173248      13.19196854      11.17203515
Ag      11.16675820      11.16714195      15.22500000
Ag      11.17049820      13.19111454      17.25744538
Ag      13.19201991      11.17182241      17.25784817
Ag      13.19584801      13.19597807      15.22500000
Ag      11.15853872      11.15927626      19.28930406
Ag      11.16267224      13.18559015      21.30548689
Ag      13.18552346      11.16304740      21.30567830
Ag      13.19173248      13.19196854      19.27796485
Ag      11.17661194      11.17682470      23.32995008
Ag      11.20815792      13.22744317      25.29795217
Ag      13.22742349      11.20820495      25.29798501
Ag      13.20516626      13.20520337      23.31166534
Ag      11.20820768      17.22249228       5.15193701
Ag      13.20836884      15.22498697       5.11565908
Ag      11.18396720      15.22491191       7.14935254
Ag      11.16311089      17.26395157       9.14411986
Ag      13.19896255      15.22492587       9.16305602
Ag      13.20524381      17.24472626       7.13826549
Ag      11.16677206      15.22454895      11.16758733
Ag      11.17147911      17.25736138      13.19228803
Ag      13.19562722      15.22473224      13.19614121
Ag      13.19210036      17.25774447      11.17186797
Ag      11.18097396      15.22389441      15.22500000
Ag      11.17147911      17.25736138      17.25771197
Ag      13.19562722      15.22473224      17.25385879
Ag      13.19570769      17.25367682      15.22500000
Ag      11.16677206      15.22454895      19.28241267
Ag      11.16311089      17.26395157      21.30588014
Ag      13.19896255      15.22492587      21.28694398
Ag      13.19210036      17.25774447      19.27813203
Ag      11.18396720      15.22491191      23.30064746
Ag      11.20820768      17.22249228      25.29806299
Ag      13.20836884      15.22498697      25.33434092
Ag      13.20524381      17.24472626      23.31173451
Ag      13.22748421      19.24177165       5.15191660
Ag      11.17692862      19.27303948       7.11952204
Ag      11.16395000      21.30694571       9.14304590
Ag      13.18594112      19.28679191       9.14405608
Ag      13.19307337      21.29689190       7.12816501
Ag      11.15980233      19.29006270      11.15988150
Ag      11.16319433      21.30594548      13.18595198
Ag      13.19213165      19.27811403      13.19219461
Ag      13.18594667      21.30594260      11.16319820
Ag      11.16723801      19.28269633      15.22500000
Ag      11.16319433      21.30594548      17.26404802
Ag      13.19213165      19.27811403      17.25780539
Ag      13.19905943      21.28701221      15.22500000
Ag      11.15980233      19.29006270      19.29011850
Ag      11.16395000      21.30694571      21.30695410
Ag      13.18594112      19.28679191      21.30594392
Ag      13.18594667      21.30594260      19.28680180
Ag      11.17692862      19.27303948      23.33047796
Ag      13.22748421      19.24177165      25.29808340
Ag      13.19307337      21.29689190      23.32183499
Ag      13.19307431      23.32183494       9.15310630
Ag      11.17694132      23.33048985      11.17694145
Ag      11.20822539      25.29808604      13.22748695
Ag      13.20525923      23.31174509      13.20525948
Ag      13.22748691      25.29808609      11.20822544
Ag      11.18406264      23.30074877      15.22500000
Ag      11.20822539      25.29808604      17.22251305
Ag      13.20525923      23.31174509      17.24474052
Ag      13.20838508      25.33435759      15.22500000
Ag      11.17694132      23.33048985      19.27305855
Ag      13.19307431      23.32183494      21.29689370
Ag      13.22748691      25.29808609      19.24177456
Ag      15.22484978       5.19324786       9.20706368
Ag      15.22494228       5.11566593      13.20836858
Ag      17.22250169       5.15191923      11.20822315
Ag      15.22494228       5.11566593      17.24163142
Ag      17.24160262       5.11564855      15.22500000
Ag      15.22484978       5.19324786      21.24293632
Ag      17.22250169       5.15191923      19.24177685
Ag      15.22493991       9.20697134       5.19323418
Ag      15.22490614       7.16574294       7.16578975
Ag      15.22494574       9.14381604       9.14384158
Ag      17.25690755       7.12815782       9.15310760
Ag      17.25691342       9.15310324       7.12816587
Ag      15.22493307       7.14922583      11.18406821
Ag      15.22492693       9.16296114      13.19906725
Ag      17.24472835       7.13825358      13.20526032
Ag      17.26403523       9.14404466      11.16319726
Ag      15.22491978       7.12954669      15.22500000
Ag      15.22492693       9.16296114      17.25093275
Ag      17.24472835       7.13825358      17.24473968
Ag      17.25092545       9.16297929      15.22500000
Ag      15.22493307       7.14922583      19.26593179
Ag      15.22494574       9.14381604      21.30615842
Ag      17.25690755       7.12815782      21.29689240
Ag      17.26403523       9.14404466      19.28680274
Ag      15.22490614       7.16574294      23.28421025
Ag      15.22493991       9.20697134      25.25676582
Ag      17.25691342       9.15310324      23.32183413
Ag      15.22498681      13.20837719       5.11565419
Ag      17.22250328      11.20822212       5.15192075
Ag      15.22493355      11.18404310       7.14929343
Ag      15.22492572      13.19903185       9.16302225
Ag      17.26404053      11.16319396       9.14404968
Ag      17.24473186      13.20525575       7.13825842
Ag      15.22495658      11.16724880      11.16725523
Ag      15.22496403      13.19601287      13.19601364
Ag      17.25780903      11.17181887      13.19218089
Ag      17.25781424      13.19217865      11.17182267
Ag      15.22494042      11.18208661      15.22500000
Ag      15.22496403      13.19601287      17.25398636
Ag      17.25780903      11.17181887      17.25781911
Ag      17.25397258      13.19601507      15.22500000
Ag      15.22495658      11.16724880      19.28274477
Ag      15.22492572      13.19903185      21.28697775
Ag      17.26404053      11.16319396      21.30595032
Ag      17.25781424      13.19217865      19.27817733
Ag      15.22493355      11.18404310      23.30070657
Ag      15.22498681      13.20837719      25.33434581
Ag      17.22250328      11.20822212      25.29807925
Ag      17.24473186      13.20525575      23.31174158
Ag      15.22499780      17.24161309       5.11564419
Ag      17.24161321      15.22499889       5.11564360
Ag      15.22498616      15.22499061       7.12956878
Ag      15.22498739      17.25092769       9.16298920
Ag      17.25092915      15.22499573       9.16298552
Ag      17.24473906      17.24473948       7.13825504
Ag      15.22492976      15.22496204      11.18213411
Ag      15.22494608      17.25394361      13.19603330
Ag      17.25397633      15.22499855      13.19601817
Ag      17.25781307      17.25781580      11.17182507
Ag      15.22496573      15.22498921      15.22500000
Ag      15.22494608      17.25394361      17.25396670
Ag      17.25397633      15.22499855      17.25398183
Ag      17.25397707      17.25397966      15.22500000
Ag      15.22492976      15.22496204      19.26786589
Ag      15.22498739      17.25092769      21.28701080
Ag      17.25092915      15.22499573      21.28701448
Ag      17.25781307      17.25781580      19.27817493
Ag      15.22498616      15.22499061      23.32043122
Ag      15.22499780      17.24161309      25.33435581
Ag      17.24161321      15.22499889      25.33435640
Ag      17.24473906      17.24473948      23.31174496
Ag      15.22499964      21.24303321       5.19316435
Ag      17.22251278      19.24177433       5.15191395
Ag      15.22499827      19.26593547       7.14925131
Ag      15.22499897      21.30617027       9.14382919
Ag      17.26404635      19.28680344       9.14404927
Ag      17.25692484      21.29689397       7.12816387
Ag      15.22499139      19.28273676      11.16725919
Ag      15.22499538      21.28701248      13.19906355
Ag      17.25781512      19.27817378      13.19218117
Ag      17.26404673      21.30595064      11.16319599
Ag      15.22496237      19.26785814      15.22500000
Ag      15.22499538      21.28701248      17.25093645
Ag      17.25781512      19.27817378      17.25781883
Ag      17.25093472      21.28701543      15.22500000
Ag      15.22499139      19.28273676      19.28274081
Ag      15.22499897      21.30617027      21.30617081
Ag      17.26404635      19.28680344      21.30595073
Ag      17.26404673      21.30595064      19.28680401
Ag      15.22499827      19.26593547      23.30074869
Ag      15.22499964      21.24303321      25.25683565
Ag      17.22251278      19.24177433      25.29808605
Ag      17.25692484      21.29689397      23.32183613
Ag      15.22499983      23.28428911       7.16571078
Ag      15.22499992      25.25683581       9.20696645
Ag      17.25692491      23.32183611       9.15310594
Ag      15.22499951      23.30074898      11.18406315
Ag      15.22499997      25.33435761      13.20838512
Ag      17.24474019      23.31174533      13.20525956
Ag      17.22251300      25.29808617      11.20822546
Ag      15.22499971      23.32043947      15.22500000
Ag      15.22499997      25.33435761      17.24161488
Ag      17.24474019      23.31174533      17.24474044
Ag      17.24161486      25.33435763      15.22500000
Ag      15.22499951      23.30074898      19.26593685
Ag      15.22499992      25.25683581      21.24303355
Ag      17.25692491      23.32183611      21.29689406
Ag      17.22251300      25.29808617      19.24177454
Ag      15.22499983      23.28428911      23.28428922
Ag      19.24177258       5.15191472      13.22748717
Ag      19.24177258       5.15191472      17.22251283
Ag      21.24303329       5.19316418      15.22500000
Ag      19.28604126       9.14304018       9.14304109
Ag      19.27305642       7.11950897      11.17694150
Ag      19.28680281       9.14404844      13.18595258
Ag      21.29689383       7.12816378      13.19307499
Ag      21.30695897       9.14304074      11.16395656
Ag      19.26593538       7.14925016      15.22500000
Ag      19.28680281       9.14404844      17.26404742
Ag      21.29689383       7.12816378      17.25692501
Ag      21.30617118       9.14382861      15.22500000
Ag      19.27305642       7.11950897      19.27305850
Ag      19.28604126       9.14304018      21.30695891
Ag      21.30695897       9.14304074      19.28604344
Ag      19.24177344      13.22748648       5.15191446
Ag      19.27305708      11.17694121       7.11950914
Ag      19.28680356      13.18595237       9.14404879
Ag      21.30695899      11.16395650       9.14304080
Ag      21.29689396      13.19307497       7.12816381
Ag      19.29014406      11.15985402      11.15985471
Ag      19.27817619      13.19217956      13.19218010
Ag      21.30595113      11.16319568      13.18595261
Ag      21.30595115      13.18595256      11.16319573
Ag      19.28274356      11.16725469      15.22500000
Ag      19.27817619      13.19217956      17.25781990
Ag      21.30595113      11.16319568      17.26404739
Ag      21.28701818      13.19906230      15.22500000
Ag      19.29014406      11.15985402      19.29014529
Ag      19.28680356      13.18595237      21.30595121
Ag      21.30695899      11.16395650      21.30695920
Ag      21.30595115      13.18595256      19.28680427
Ag      19.27305708      11.17694121      23.33049086
Ag      19.24177344      13.22748648      25.29808554
Ag      21.29689396      13.19307497      23.32183619
Ag      19.24177436      17.22251291       5.15191389
Ag      21.24303346      15.22499994       5.19316412
Ag      19.26593620      15.22499959       7.14925066
Ag      19.28680363      17.26404703       9.14404899
Ag      21.30617129      15.22499998       9.14382865
Ag      21.29689403      17.25692495       7.12816383
Ag      19.28274432      15.22499981      11.16725509
Ag      19.27817684      17.25781980      13.19217999
Ag      21.28701821      15.22499996      13.19906235
Ag      21.30595122      17.26404737      11.16319572
Ag      19.26789375      15.22499962      15.22500000
Ag      19.27817684      17.25781980      17.25782001
Ag      21.28701821      15.22499996      17.25093765
Ag      21.28701823      17.25093763      15.22500000
Ag      19.28274432      15.22499981      19.28274491
Ag      19.28680363      17.26404703      21.30595101
Ag      21.30617129      15.22499998      21.30617135
Ag      21.30595122      17.26404737      19.28680428
Ag      19.26593620      15.22499959      23.30074934
Ag      19.24177436      17.22251291      25.29808611
Ag      21.24303346      15.22499994      25.25683588
Ag      21.29689403      17.25692495      23.32183617
Ag      19.27305831      19.27305835       7.11950910
Ag      19.28604334      21.30695915       9.14304082
Ag      21.30695917      19.28604339       9.14304080
Ag      19.29014494      19.29014511      11.15985472
Ag      19.28680396      21.30595102      13.18595268
Ag      21.30595123      19.28680426      13.18595261
Ag      21.30695919      21.30695920      11.16395659
Ag      19.28274454      19.28274473      15.22500000
Ag      19.28680396      21.30595102      17.26404732
Ag      21.30595123      19.28680426      17.26404739
Ag      21.30617133      21.30617134      15.22500000
Ag      19.29014494      19.29014511      19.29014528
Ag      19.28604334      21.30695915      21.30695918
Ag      21.30695917      19.28604339      21.30695920
Ag      21.30695919      21.30695920      19.28604341
Ag      19.27305831      19.27305835      23.33049090
Ag      19.27305838      23.33049091      11.17694159
Ag      19.24177453      25.29808620      13.22748696
Ag      21.29689408      23.32183617      13.19307502
Ag      19.26593685      23.30074948      15.22500000
Ag      19.24177453      25.29808620      17.22251304
Ag      21.29689408      23.32183617      17.25692498
Ag      21.24303357      25.25683592      15.22500000
Ag      19.27305838      23.33049091      19.27305841
Ag      23.32183616       9.15310590      13.19307501
Ag      23.28428929       7.16571067      15.22500000
Ag      23.32183616       9.15310590      17.25692499
Ag      25.25683593       9.20696642      15.22500000
Ag      23.32183617      13.19307501       9.15310590
Ag      23.33049093      11.17694156      11.17694157
Ag      23.31174570      13.20525949      13.20525949
Ag      25.29808622      11.20822545      13.22748696
Ag      25.29808622      13.22748696      11.20822545
Ag      23.30074964      11.18406297      15.22500000
Ag      23.31174570      13.20525949      17.24474051
Ag      25.29808622      11.20822545      17.22251304
Ag      25.33435767      13.20838512      15.22500000
Ag      23.33049093      11.17694156      19.27305843
Ag      23.32183617      13.19307501      21.29689410
Ag      25.29808622      13.22748696      19.24177455
Ag      23.28428931      15.22500000       7.16571067
Ag      23.32183618      17.25692498       9.15310590
Ag      25.25683593      15.22500000       9.20696642
Ag      23.30074964      15.22500000      11.18406297
Ag      23.31174571      17.24474050      13.20525949
Ag      25.33435767      15.22500000      13.20838512
Ag      25.29808622      17.22251304      11.20822545
Ag      23.32043998      15.22500000      15.22500000
Ag      23.31174571      17.24474050      17.24474051
Ag      25.33435767      15.22500000      17.24161488
Ag      25.33435767      17.24161488      15.22500000
Ag      23.30074964      15.22500000      19.26593703
Ag      23.32183618      17.25692498      21.29689410
Ag      25.25683593      15.22500000      21.24303358
Ag      25.29808622      17.22251304      19.24177455
Ag      23.28428931      15.22500000      23.28428933
Ag      23.33049095      19.27305843      11.17694157
Ag      23.32183619      21.29689409      13.19307501
Ag      25.29808622      19.24177455      13.22748696
Ag      23.30074965      19.26593703      15.22500000
Ag      23.32183619      21.29689409      17.25692499
Ag      25.29808622      19.24177455      17.22251304
Ag      25.25683594      21.24303358      15.22500000
Ag      23.33049095      19.27305843      19.27305843
Ag      23.28428932      23.28428932      15.22500000
