405
Lattice="30.449999999999996 0.0 0.0 0.0 30.449999999999996 0.0 0.0 0.0 30.449999999999996" Properties=species:S:1:pos:R:3 pbc="F F F"
Ag       5.19938350       9.21074709      15.21729695
Ag       5.17961750      11.20024578      13.19741804
Ag       5.17961750      13.19741804      11.20024578
Ag       5.15224050      11.20789469      17.22220213
Ag       5.11824932      13.20349364      15.21866228
Ag       5.15223631      13.22743859      19.24189473
Ag       5.19938350      15.21729695       9.21074709
Ag       5.11824932      15.21866228      13.20349364
Ag       5.15224050      17.22220213      11.20789469
Ag       5.11552817      15.22404453      17.24041509
Ag       5.11552817      17.24041509      15.22404453
Ag       5.19391297      15.22499971      21.24308780
Ag       5.15228036      17.22239731      19.24176006
Ag       5.15223631      19.24189473      13.22743859
Ag       5.15228036      19.24176006      17.22239731
Ag       5.19391297      21.24308780      15.22499971
Ag       9.20628507       5.19599792      15.22382560
Ag       7.12601889       9.17081893      13.17071167
Ag       9.14974389       7.13456909      13.18953978
Ag       9.12137545       9.16316510      11.16135430
Ag       7.16644034       7.17365452      15.21720270
Ag       7.12776816       9.15259124      17.25688044
Ag       9.15226216       7.12884004      17.25595504
Ag       9.14061973       9.14598299      15.22014853
Ag       9.14299718       9.14300817      19.28620155
Ag       7.12601889      13.17071167       9.17081893
Ag       9.12137545      11.16135430       9.16316510
Ag       9.14974389      13.18953978       7.13456909
Pd       7.17536162      11.23168724      11.23168724
Ag       7.14326647      13.20479136      13.20479136
Ag       9.14095963      11.16433682      13.18256603
Ag       9.14095963      13.18256603      11.16433682
Ag       7.14994483      11.18434326      15.22658275
Ag       7.13768382      13.20555706      17.24425248
Ag       9.14412746      11.16310702      17.26411378
Ag       9.16146652      13.19757657      15.22203934
Ag       7.11936257      11.17668208      19.27310573
Ag       7.12808437      13.19260511      21.29716269
Ag       9.14303276      11.16364075      21.30693431
Ag       9.14404947      13.18573405      19.28668169
Ag       9.15281366      13.19261077      23.32191152
Ag       9.20628507      15.22382560       5.19599792
Ag       7.16644034      15.21720270       7.17365452
Ag       7.12776816      17.25688044       9.15259124
Ag       9.14061973      15.22014853       9.14598299
Ag       9.15226216      17.25595504       7.12884004
Ag       7.14994483      15.22658275      11.18434326
Ag       7.13768382      17.24425248      13.20555706
Ag       9.16146652      15.22203934      13.19757657
Ag       9.14412746      17.26411378      11.16310702
Ag       7.12809536      15.22107205      15.22107205
Ag       7.13781684      17.24360540      17.24360540
Ag       9.16269871      15.22440713      17.24954745
Ag       9.16269871      17.24954745      15.22440713
Ag       7.14920838      15.22498302      19.26585436
Ag       7.12807857      17.25738385      21.29716666
Ag       9.14370019      15.22499746      21.30628288
Ag       9.14402231      17.26418863      19.28664374
Ag       7.16557958      15.22499935      23.28441716
Ag       9.20689543      15.22499991      25.25609493
Ag       9.15281367      17.25738804      23.32191261
Ag       9.14299718      19.28620155       9.14300817
Ag       7.11936257      19.27310573      11.17668208
Ag       7.12808437      21.29716269      13.19260511
Ag       9.14404947      19.28668169      13.18573405
Ag       9.14303276      21.30693431      11.16364075
Ag       7.14920838      19.26585436      15.22498302
Ag       7.12807857      21.29716666      17.25738385
Ag       9.14402231      19.28664374      17.26418863
Ag       9.14370019      21.30628288      15.22499746
Ag       7.11937524      19.27318291      19.27318291
Ag       9.14303499      19.28634677      21.30694985
Ag       9.14303499      21.30694985      19.28634677
Ag       9.15281366      23.32191152      13.19261077
Ag       7.16557958      23.28441716      15.22499935
Ag       9.15281367      23.32191261      17.25738804
Ag       9.20689543      25.25609493      15.22499991
Ag      11.20705435       5.15393942      13.22684835
Ag      13.22630284       5.15356195      11.20802887
Ag      11.20780561       5.15245516      17.22229321
Ag      13.20798217       5.11509554      15.22483260
Ag      13.22740352       5.15222487      19.24195098
Ag      11.15787746       9.14655038       9.14655038
Ag      13.19130581       7.12897258       9.15342135
Ag      13.19130581       9.15342135       7.12897258
Ag      11.17116991       7.12584857      11.17713660
Ag      11.15841395       9.14620726      13.18245377
Ag      13.20433024       7.13857094      13.20500596
Ag      13.18553583       9.14390806      11.16313645
Ag      11.18304069       7.15017097      15.22401983
Ag      11.16251804       9.14440469      17.26320324
Ag      13.20528575       7.13800302      17.24437798
Ag      13.19843042       9.16350523      15.22435357
Ag      11.17660692       7.11946511      19.27306713
Ag      11.16363695       9.14303573      21.30693924
Ag      13.19259881       7.12809135      21.29716378
Ag      13.18564199       9.14410345      19.28663460
Ag      13.19261047       9.15281409      23.32191226
Ag      11.20705435      13.22684835       5.15393942
Ag      13.22630284      11.20802887       5.15356195
Ag      11.17116991      11.17713660       7.12584857
Ag      11.15841395      13.18245377       9.14620726
Ag      13.18553583      11.16313645       9.14390806
Ag      13.20433024      13.20500596       7.13857094
Ag      11.16106276      11.15978857      11.15978857
Ag      11.16790643      13.18994665      13.18994665
Ag      13.19196176      11.17146009      13.19220628
Ag      13.19196176      13.19220628      11.17146009
Ag      11.16304148      11.16694189      15.22086024
Ag      11.17091582      13.19177034      17.25685829
Ag      13.19133750      11.17150964      17.25701205
Ag      13.19470086      13.19528892      15.22438380
Ag      11.15987203      11.15987884      19.29004199
Ag      11.16323124      13.18573652      21.30591666
Ag      13.18573342      11.16323434      21.30591829
Ag      13.19207888      13.19212296      19.27835646
Ag      11.17671311      11.17671360      23.33061485
Ag      11.20801359      13.22743434      25.29780250
Ag      13.22743431      11.20801365      25.29780254
Ag      13.20545907      13.20545938      23.31208148
Ag      11.20780561      17.22229321       5.15245516
Ag      13.20798217      15.22483260       5.11509554
Ag      11.18304069      15.22401983       7.15017097
Ag      11.16251804      17.26320324       9.14440469
Ag      13.19843042      15.22435357       9.16350523
Ag      13.20528575      17.24437798       7.13800302
Ag      11.16304148      15.22086024      11.16694189
Ag      11.17091582      17.25685829      13.19177034
Ag      13.19470086      15.22438380      13.19528892
Ag      13.19133750      17.25701205      11.17150964
Ag      11.18079202      15.22420309      15.22420309
Ag      11.17141720      17.25770766      17.25770766
Ag      13.19554852      15.22490293      17.25418848
Ag      13.19554852      17.25418848      15.22490293
Ag      11.16703225      15.22493179      19.28275216
Ag      11.16322974      17.26425544      21.30591490
Ag      13.19947501      15.22499449      21.28686709
Ag      13.19215102      17.25782454      19.27846499
Ag      11.18405062      15.22499972      23.30075476
Ag      11.20801362      17.22256555      25.29780263
Ag      13.20819661      15.22499998      25.33509438
Ag      13.20545909      17.24454003      23.31208153
Ag      13.22740352      19.24195098       5.15222487
Ag      11.17660692      19.27306713       7.11946511
Ag      11.16363695      21.30693924       9.14303573
Ag      13.18564199      19.28663460       9.14410345
Ag      13.19259881      21.29716378       7.12809135
Ag      11.15987203      19.29004199      11.15987884
Ag      11.16323124      21.30591666      13.18573652
Ag      13.19207888      19.27835646      13.19212296
Ag      13.18573342      21.30591829      11.16323434
Ag      11.16703225      19.28275216      15.22493179
Ag      11.16322974      21.30591490      17.26425544
Ag      13.19215102      19.27846499      17.25782454
Ag      13.19947501      21.28686709      15.22499449
Ag      11.15988440      19.29009508      19.29009508
Ag      11.16364511      21.30696014      21.30696014
Ag      13.18573710      19.28676343      21.30592603
Ag      13.18573710      21.30592603      19.28676343
Ag      11.17671366      19.27328537      23.33061664
Ag      13.22743438      19.24198627      25.29780272
Ag      13.19261143      21.29718560      23.32191430
Ag      13.19261047      23.32191226       9.15281409
Ag      11.17671311      23.33061485      11.17671360
Ag      11.20801359      25.29780250      13.22743434
Ag      13.20545907      23.31208148      13.20545938
Ag      13.22743431      25.29780254      11.20801365
Ag      11.18405062      23.30075476      15.22499972
Ag      11.20801362      25.29780263      17.22256555
Ag      13.20545909      23.31208153      17.24454003
Ag      13.20819661      25.33509438      15.22499998
Ag      11.17671366      23.33061664      19.27328537
Ag      13.19261143      23.32191430      21.29718560
Ag      13.22743438      25.29780272      19.24198627
Ag      15.22474506       5.19411371       9.20698977
Ag      15.22481967       5.11502342      13.20811436
Ag      17.22254370       5.15220563      11.20800817
Ag      15.22497289       5.11492448      17.24178130
Ag      17.24178346       5.11491627      15.22498906
Ag      15.22499636       5.19390700      21.24310045
Ag      17.22256274       5.15219870      19.24198392
Ag      15.22474506       9.20698977       5.19411371
Ag      15.22474439       7.16572891       7.16572891
Ag      15.22491669       9.14366780       9.14366780
Ag      17.25736250       7.12807790       9.15280811
Ag      17.25736250       9.15280811       7.12807790
Ag      15.22490492       7.14922126      11.18403419
Ag      15.22493785       9.16309795      13.19948148
Ag      17.24452719       7.13791322      13.20545706
Ag      17.26424673       9.14407033      11.16323265
Ag      15.22483715       7.12861638      15.22491006
Ag      15.22487196       9.16315581      17.25043091
Ag      17.24452544       7.13792144      17.24453127
Ag      17.25050896       9.16311862      15.22499821
Ag      15.22498232       7.14925019      19.26593256
Ag      15.22499239       9.14370648      21.30628577
Ag      17.25738725       7.12808589      21.29718456
Ag      17.26425305       9.14407496      19.28675786
Ag      15.22499885       7.16558005      23.28441857
Ag      15.22499989       9.20689550      25.25609512
Ag      17.25738802       9.15281441      23.32191383
Ag      15.22481967      13.20811436       5.11502342
Ag      17.22254370      11.20800817       5.15220563
Ag      15.22490492      11.18403419       7.14922126
Ag      15.22493785      13.19948148       9.16309795
Ag      17.26424673      11.16323265       9.14407033
Ag      17.24452719      13.20545706       7.13791322
Ag      15.22490208      11.16708849      11.16708849
Ag      15.22495082      13.19568659      13.19568659
Ag      17.25782378      11.17151825      13.19216035
Ag      17.25782378      13.19216035      11.17151825
Ag      15.22494212      11.18157254      15.22499313
Ag      15.22488301      13.19564250      17.25424195
Ag      17.25782913      11.17151904      17.25783423
Ag      17.25431318      13.19567981      15.22499932
Ag      15.22491958      11.16710516      19.28281458
Ag      15.22499292      13.19947989      21.28687035
Ag      17.26425716      11.16323559      21.30592232
Ag      17.25782785      13.19216105      19.27847408
Ag      15.22499954      11.18405107      23.30075516
Ag      15.22499996      13.20819664      25.33509440
Ag      17.22256555      11.20801368      25.29780273
Ag      17.24454007      13.20545942      23.31208188
Ag      15.22497289      17.24178130       5.11492448
Ag      17.24178346      15.22498906       5.11491627
Ag      15.22483715      15.22491006       7.12861638
Ag      15.22487196      17.25043091       9.16315581
Ag      17.25050896      15.22499821       9.16311862
Ag      17.24452544      17.24453127       7.13792144
Ag      15.22494212      15.22499313      11.18157254
Ag      15.22488301      17.25424195      13.19564250
Ag      17.25431318      15.22499932      13.19567981
Ag      17.25782913      17.25783423      11.17151904
Ag      15.22486522      15.22493387      15.22493387
Ag      15.22498513      17.25430829      17.25430829
Ag      17.25430862      15.22499522      17.25431360
Ag      17.25430862      17.25431360      15.22499522
Ag      15.22498713      15.22499231      19.26841032
Ag      15.22499899      17.25051664      21.28687867
Ag      17.25051660      15.22499956      21.28687903
Ag      17.25783546      17.25783583      19.27847938
Ag      15.22499953      15.22499973      23.32143989
Ag      15.22499997      17.24180332      25.33509441
Ag      17.24180332      15.22499999      25.33509442
Ag      17.24454040      17.24454042      23.31208231
Ag      15.22499636      21.24310045       5.19390700
Ag      17.22256274      19.24198392       5.15219870
Ag      15.22498232      19.26593256       7.14925019
Ag      15.22499239      21.30628577       9.14370648
Ag      17.26425305      19.28675786       9.14407496
Ag      17.25738725      21.29718456       7.12808589
Ag      15.22491958      19.28281458      11.16710516
Ag      15.22499292      21.28687035      13.19947989
Ag      17.25782785      19.27847408      13.19216105
Ag      17.26425716      21.30592232      11.16323559
Ag      15.22498713      19.26841032      15.22499231
Ag      15.22499899      21.28687867      17.25051664
Ag      17.25783546      19.27847938      17.25783583
Ag      17.25051660      21.28687903      15.22499956
Ag      15.22499883      19.28289304      19.28289304
Ag      15.22499993      21.30629529      21.30629529
Ag      17.26426199      19.28676430      21.30592709
Ag      17.26426199      21.30592709      19.28676430
Ag      15.22499994      19.26594880      23.30075579
Ag      15.22499999      21.24310447      25.25609534
Ag      17.22256558      19.24198630      25.29780279
Ag      17.25738850      21.29718567      23.32191439
Ag      15.22499885      23.28441857       7.16558005
Ag      15.22499989      25.25609512       9.20689550
Ag      17.25738802      23.32191383       9.15281441
Ag      15.22499954      23.30075516      11.18405107
Ag      15.22499996      25.33509440      13.20819664
Ag      17.24454007      23.31208188      13.20545942
Ag      17.22256555      25.29780273      11.20801368
Ag      15.22499953      23.32143989      15.22499973
Ag      15.22499997      25.33509441      17.24180332
Ag      17.24454040      23.31208231      17.24454042
Ag      17.24180332      25.33509442      15.22499999
Ag      15.22499994      23.30075579      19.26594880
Ag      15.22499999      25.25609534      21.24310447
Ag      17.25738850      23.32191439      21.29718567
Ag      17.22256558      25.29780279      19.24198630
Ag      15.22499999      23.28442037      23.28442037
Ag      19.24198429       5.15219809      13.22743402
Ag      19.24198440       5.15219800      17.22256437
Ag      21.24310426       5.19390473      15.22499994
Ag      19.28635109       9.14303833       9.14303833
Ag      19.27328316       7.11938213      11.17671348
Ag      19.28676280       9.14407261      13.18573750
Ag      21.29718542       7.12808558      13.19261142
Ag      21.30696092       9.14303875      11.16364573
Ag      19.26594746       7.14924370      15.22499962
Ag      19.28676361       9.14407273      17.26426183
Ag      21.29718553       7.12808557      17.25738847
Ag      21.30629525       9.14370461      15.22499996
Ag      19.27328493       7.11938257      19.27328528
Ag      19.28635364       9.14303890      21.30696080
Ag      21.30696114       9.14303878      19.28635417
Ag      19.24198429      13.22743402       5.15219809
Ag      19.27328316      11.17671348       7.11938213
Ag      19.28676280      13.18573750       9.14407261
Ag      21.30696092      11.16364573       9.14303875
Ag      21.29718542      13.19261142       7.12808558
Ag      19.29010568      11.15989245      11.15989245
Ag      19.27847908      13.19216317      13.19216317
Ag      21.30592704      11.16323561      13.18573790
Ag      21.30592704      13.18573790      11.16323561
Ag      19.28289309      11.16710569      15.22499967
Ag      19.27847963      13.19216336      17.25783639
Ag      21.30592709      11.16323563      17.26426205
Ag      21.28687978      13.19948253      15.22499998
Ag      19.29010663      11.15989277      19.29010693
Ag      19.28676390      13.18573782      21.30592682
Ag      21.30696116      11.16364581      21.30696119
Ag      21.30592712      13.18573792      19.28676434
Ag      19.27328566      11.17671409      23.33061737
Ag      19.24198628      13.22743441      25.29780276
Ag      21.29718565      13.19261149      23.32191437
Ag      19.24198440      17.22256437       5.15219800
Ag      21.24310426      15.22499994       5.19390473
Ag      19.26594746      15.22499962       7.14924370
Ag      19.28676361      17.26426183       9.14407273
Ag      21.30629525      15.22499996       9.14370461
Ag      21.29718553      17.25738847       7.12808557
Ag      19.28289309      15.22499967      11.16710569
Ag      19.27847963      17.25783639      13.19216336
Ag      21.28687978      15.22499998      13.19948253
Ag      21.30592709      17.26426205      11.16323563
Ag      19.26842244      15.22499989      15.22499989
Ag      19.27847952      17.25783620      17.25783620
Ag      21.28687981      15.22499999      17.25051744
Ag      21.28687981      17.25051744      15.22499999
Ag      19.28289351      15.22499975      19.28289377
Ag      19.28676430      17.26426203      21.30592711
Ag      21.30629534      15.22499999      21.30629535
Ag      21.30592712      17.26426205      19.28676434
Ag      19.26594881      15.22499998      23.30075583
Ag      19.24198630      17.22256558      25.29780279
Ag      21.24310447      15.22500000      25.25609535
Ag      21.29718567      17.25738850      23.32191439
Ag      19.27328493      19.27328528       7.11938257
Ag      19.28635364      21.30696080       9.14303890
Ag      21.30696114      19.28635417       9.14303878
Ag      19.29010663      19.29010693      11.15989277
Ag      19.28676390      21.30592682      13.18573782
Ag      21.30592712      19.28676434      13.18573792
Ag      21.30696116      21.30696119      11.16364581
Ag      19.28289351      19.28289377      15.22499975
Ag      19.28676430      21.30592711      17.26426203
Ag      21.30592712      19.28676434      17.26426205
Ag      21.30629534      21.30629535      15.22499999
Ag      19.29010713      19.29010715      19.29010715
Ag      19.28635418      21.30696120      21.30696120
Ag      21.30696120      19.28635418      21.30696120
Ag      21.30696120      21.30696120      19.28635418
Ag      19.27328591      19.27328591      23.33061762
Ag      19.27328566      23.33061737      11.17671409
Ag      19.24198628      25.29780276      13.22743441
Ag      21.29718565      23.32191437      13.19261149
Ag      19.26594881      23.30075583      15.22499998
Ag      19.24198630      25.29780279      17.22256558
Ag      21.29718567      23.32191439      17.25738850
Ag      21.24310447      25.25609535      15.22500000
Ag      19.27328591      23.33061762      19.27328591
Ag      23.32191437       9.15281432      13.19261149
Ag      23.28442035       7.16557962      15.22499999
Ag      23.32191438       9.15281433      17.25738850
Ag      25.25609535       9.20689553      15.22500000
Ag      23.32191437      13.19261149       9.15281432
Ag      23.33061760      11.17671408      11.17671408
Ag      23.31208237      13.20545954      13.20545954
Ag      25.29780279      11.20801369      13.22743442
Ag      25.29780279      13.22743442      11.20801369
Ag      23.30075586      11.18405115      15.22500000
Ag      23.31208237      13.20545954      17.24454046
Ag      25.29780279      11.20801369      17.22256558
Ag      25.33509446      13.20819666      15.22500000
Ag      23.33061761      11.17671409      19.27328591
Ag      23.32191439      13.19261150      21.29718567
Ag      25.29780279      13.22743442      19.24198631
Ag      23.28442035      15.22499999       7.16557962
Ag      23.32191438      17.25738850       9.15281433
Ag      25.25609535      15.22500000       9.20689553
Ag      23.30075586      15.22500000      11.18405115
Ag      23.31208237      17.24454046      13.20545954
Ag      25.33509446      15.22500000      13.20819666
Ag      25.29780279      17.22256558      11.20801369
Ag      23.32144062      15.22500000      15.22500000
Ag      23.31208237      17.24454046      17.24454046
Ag      25.33509446      15.22500000      17.24180334
Ag      25.33509446      17.24180334      15.22500000
Ag      23.30075586      15.22500000      19.26594885
Ag      23.32191439      17.25738850      21.29718567
Ag      25.25609535      15.22500000      21.24310447
Ag      25.29780279      17.22256558      19.24198631
Ag      23.28442037      15.22500000      23.28442037
Ag      23.33061761      19.27328591      11.17671409
Ag      23.32191439      21.29718567      13.19261150
Ag      25.29780279      19.24198631      13.22743442
Ag      23.30075586      19.26594885      15.22500000
Ag      23.32191439      21.29718567      17.25738850
Ag      25.29780279      19.24198631      17.22256558
Ag      25.25609535      21.24310447      15.22500000
Ag      23.33061762      19.27328591      19.27328591
Ag      23.28442037      23.28442037      15.22500000
