405
Lattice="30.449999999999996 0.0 0.0 0.0 30.449999999999996 0.0 0.0 0.0 30.449999999999996" Properties=species:S:1:pos:R:3 pbc="F F F"
Ag       5.19160057       9.20654495      15.22500000
Ag       5.14228309      11.24795358      13.26781249
Ag       5.14985150      13.22794068      11.20794153
Ag       5.14228309      11.24795358      17.18218751
Pd       5.23882483      13.21130027      15.22500000
Ag       5.14985150      13.22794068      19.24205847
Ag       5.19277509      15.22533363       9.20656582
Ag       5.11184805      15.19508112      13.23795424
Ag       5.15117333      17.20822763      11.22259861
Ag       5.11184805      15.19508112      17.21204576
Ag       5.11389026      17.24190694      15.22500000
Ag       5.19277509      15.22533363      21.24343418
Ag       5.15117333      17.20822763      19.22740139
Ag       5.15198316      19.24185235      13.22718282
Ag       5.15198316      19.24185235      17.22281718
Ag       5.19252218      21.24285948      15.22500000
Ag       9.20678438       5.19289994      15.22500000
Ag       7.12068846       9.16155375      13.19487517
Ag       9.15152486       7.13107232      13.19430924
Ag       9.14069294       9.14519605      11.16634084
Ag       7.16578307       7.16715178      15.22500000
Ag       7.12068846       9.16155375      17.25512483
Ag       9.15152486       7.13107232      17.25569076
Ag       9.14383929       9.14379476      15.22500000
Ag       9.14069294       9.14519605      19.28365916
Ag       7.12825225      13.19307818       9.15442518
Ag       9.14113992      11.16505503       9.14596725
Ag       9.15325283      13.19343265       7.12860682
Ag       7.11136540      11.17934566      11.18635926
Ag       7.14438993      13.20628786      13.20510270
Ag       9.14615241      11.16372197      13.18589917
Ag       9.14366535      13.18602650      11.16315646
Ag       7.15526894      11.18488182      15.22500000
Ag       7.14438993      13.20628786      17.24489730
Ag       9.14615241      11.16372197      17.26410083
Ag       9.16489030      13.19945407      15.22500000
Ag       7.11136540      11.17934566      19.26364074
Ag       7.12825225      13.19307818      21.29557482
Ag       9.14113992      11.16505503      21.30403275
Ag       9.14366535      13.18602650      19.28684354
Ag       9.15325283      13.19343265      23.32139318
Ag       9.20685878      15.22500360       5.19245122
Ag       7.16588762      15.22504010       7.16597678
Ag       7.12712864      17.25516499       9.15632900
Ag       9.14231999      15.22443421       9.14621504
Ag       9.15298179      17.25622390       7.12895686
Ag       7.14501307      15.22376260      11.18818994
Ag       7.13370602      17.24012462      13.20720402
Ag       9.16472267      15.22539400      13.19903002
Ag       9.14207450      17.26220613      11.16498286
Ag       7.13581234      15.22595413      15.22500000
Ag       7.13370602      17.24012462      17.24279598
Ag       9.16472267      15.22539400      17.25096998
Ag       9.16228251      17.25100707      15.22500000
Ag       7.14501307      15.22376260      19.26181006
Ag       7.12712864      17.25516499      21.29367100
Ag       9.14231999      15.22443421      21.30378496
Ag       9.14207450      17.26220613      19.28501714
Ag       7.16588762      15.22504010      23.28402322
Ag       9.20685878      15.22500360      25.25754878
Ag       9.15298179      17.25622390      23.32104314
Ag       9.14253779      19.28513584       9.14364375
Ag       7.11839405      19.26953287      11.17882227
Ag       7.12837526      21.29651094      13.19335361
Ag       9.14232295      19.28455209      13.18661564
Ag       9.14265363      21.30627007      11.16453290
Ag       7.14921538      19.26496963      15.22500000
Ag       7.12837526      21.29651094      17.25664639
Ag       9.14232295      19.28455209      17.26338436
Ag       9.14399460      21.30567087      15.22500000
Ag       7.11839405      19.26953287      19.27117773
Ag       9.14253779      19.28513584      21.30635625
Ag       9.14265363      21.30627007      19.28546710
Ag       9.15330125      23.32170273      13.19344650
Ag       7.16568703      23.28422754      15.22500000
Ag       9.15330125      23.32170273      17.25655350
Ag       9.20685512      25.25763350      15.22500000
Ag      11.20787765       5.15229556      13.22766728
Ag      13.22734141       5.15168487      11.20839340
Ag      11.20787765       5.15229556      17.22233272
Ag      13.20820416       5.11669214      15.22500000
Ag      13.22734141       5.15168487      19.24160660
Ag      11.16360711       9.14347126       9.14364667
Ag      13.19332380       7.12834502       9.15341320
Ag      13.19334697       9.15337102       7.12835431
Ag      11.17652698       7.12028868      11.17761036
Ag      11.16167061       9.14517995      13.18668421
Ag      13.20466495       7.13893436      13.20528664
Ag      13.18563186       9.14430276      11.16348050
Ag      11.18245698       7.15097046      15.22500000
Ag      11.16167061       9.14517995      17.26331579
Ag      13.20466495       7.13893436      17.24471336
Ag      13.19859526       9.16286675      15.22500000
Ag      11.17652698       7.12028868      19.27238964
Ag      11.16360711       9.14347126      21.30635333
Ag      13.19332380       7.12834502      21.29658680
Ag      13.18563186       9.14430276      19.28651950
Ag      13.19334697       9.15337102      23.32164569
Ag      11.20828886      13.22746358       5.15163124
Ag      13.22740159      11.20834033       5.15164462
Ag      11.17675796      11.17731682       7.12027725
Ag      11.16157555      13.18612706       9.14566200
Ag      13.18567370      11.16338531       9.14437973
Ag      13.20478449      13.20513454       7.13898510
Ag      11.15827652      11.16037755      11.16082940
Ag      11.17185858      13.19217968      13.19216724
Ag      13.19202523      11.17197035      13.19211099
Ag      13.19198714      13.19215208      11.17202167
Ag      11.16717674      11.16745798      15.22500000
Ag      11.17185858      13.19217968      17.25783276
Ag      13.19202523      11.17197035      17.25788901
Ag      13.19600895      13.19614488      15.22500000
Ag      11.15827652      11.16037755      19.28917060
Ag      11.16157555      13.18612706      21.30433800
Ag      13.18567370      11.16338531      21.30562027
Ag      13.19198714      13.19215208      19.27797833
Ag      11.17675796      11.17731682      23.32972275
Ag      11.20828886      13.22746358      25.29836876
Ag      13.22740159      11.20834033      25.29835538
Ag      13.20478449      13.20513454      23.31101490
Ag      11.20825208      17.22248440       5.15167293
Ag      13.20853537      15.22498303       5.11635462
Ag      11.18377338      15.22485262       7.14989320
Ag      11.16270094      17.26351658       9.14459448
Ag      13.19831747      15.22487583       9.16317589
Ag      13.20505117      17.24480340       7.13872826
Ag      11.16585974      15.22440821      11.16849758
Ag      11.17046689      17.25682648      13.19277339
Ag      13.19603583      15.22504482      13.19610520
Ag      13.19167252      17.25762553      11.17225603
Ag      11.18223711      15.22500659      15.22500000
Ag      11.17046689      17.25682648      17.25722661
Ag      13.19603583      15.22504482      17.25389480
Ag      13.19599762      17.25384620      15.22500000
Ag      11.16585974      15.22440821      19.28150242
Ag      11.16270094      17.26351658      21.30540552
Ag      13.19831747      15.22487583      21.28682411
Ag      13.19167252      17.25762553      19.27774397
Ag      11.18377338      15.22485262      23.30010680
Ag      11.20825208      17.22248440      25.29832707
Ag      13.20853537      15.22498303      25.33364538
Ag      13.20505117      17.24480340      23.31127174
Ag      13.22745048      19.24166790       5.15156070
Ag      11.17702506      19.27276811       7.11977999
Ag      11.16412137      21.30688084       9.14308923
Ag      13.18603579      19.28666697       9.14415542
Ag      13.19343904      21.29668094       7.12825468
Ag      11.15925095      19.28969377      11.16014812
Ag      11.16286641      21.30540724      13.18626278
Ag      13.19170852      19.27767951      13.19228703
Ag      13.18605087      21.30583492      11.16330634
Ag      11.16576124      19.28095399      15.22500000
Ag      11.16286641      21.30540724      17.26373722
Ag      13.19170852      19.27767951      17.25771297
Ag      13.19840369      21.28678185      15.22500000
Ag      11.15925095      19.28969377      19.28985188
Ag      11.16412137      21.30688084      21.30691077
Ag      13.18603579      19.28666697      21.30584458
Ag      13.18605087      21.30583492      19.28669366
Ag      11.17702506      19.27276811      23.33022001
Ag      13.22745048      19.24166790      25.29843930
Ag      13.19343904      21.29668094      23.32174532
Ag      13.19344277      23.32174473       9.15331219
Ag      11.17706970      23.33023814      11.17716779
Ag      11.20831534      25.29844955      13.22746732
Ag      13.20509307      23.31128424      13.20516046
Ag      13.22746007      25.29844730      11.20832270
Ag      11.18416824      23.30057439      15.22500000
Ag      11.20831534      25.29844955      17.22253268
Ag      13.20509307      23.31128424      17.24483954
Ag      13.20858801      25.33371746      15.22500000
Ag      11.17706970      23.33023814      19.27283221
Ag      13.19344277      23.32174473      21.29668781
Ag      13.22746007      25.29844730      19.24167730
Ag      15.22497178       5.19236875       9.20687689
Ag      15.22492717       5.11632993      13.20860859
Ag      17.22251940       5.15154516      11.20832295
Ag      15.22492717       5.11632993      17.24139141
Ag      17.24140138       5.11627827      15.22500000
Ag      15.22497178       5.19236875      21.24312311
Ag      17.22251940       5.15154516      19.24167705
Ag      15.22498014       9.20686818       5.19236521
Ag      15.22497653       7.16568998       7.16569405
Ag      15.22492159       9.14408311       9.14409413
Ag      17.25653089       7.12823993       9.15330447
Ag      17.25653226       9.15330281       7.12824094
Ag      15.22491355       7.14941077      11.18421998
Ag      15.22496944       9.16285845      13.19876299
Ag      17.24484765       7.13864765      13.20514587
Ag      17.26385285       9.14408140      11.16325936
Ag      15.22495746       7.13050951      15.22500000
Ag      15.22496944       9.16285845      17.25123701
Ag      17.24484765       7.13864765      17.24485413
Ag      17.25122426       9.16286711      15.22500000
Ag      15.22491355       7.14941077      19.26578002
Ag      15.22492159       9.14408311      21.30590587
Ag      17.25653089       7.12823993      21.29669553
Ag      17.26385285       9.14408140      19.28674064
Ag      15.22497653       7.16568998      23.28430595
Ag      15.22498014       9.20686818      25.25763479
Ag      17.25653226       9.15330281      23.32175906
Ag      15.22495656      13.20858928       5.11632107
Ag      17.22252323      11.20832040       5.15154392
Ag      15.22493232      11.18420289       7.14941659
Ag      15.22496361      13.19876983       9.16287307
Ag      17.26385284      11.16325934       9.14408248
Ag      17.24484819      13.20514597       7.13864976
Ag      15.22497076      11.16743078      11.16743196
Ag      15.22495953      13.19614962      13.19615019
Ag      17.25783850      11.17201837      13.19215521
Ag      17.25783926      13.19215459      11.17201882
Ag      15.22495790      11.18229370      15.22500000
Ag      15.22495953      13.19614962      17.25384981
Ag      17.25783850      11.17201837      17.25784479
Ag      17.25384275      13.19615034      15.22500000
Ag      15.22497076      11.16743078      19.28256804
Ag      15.22496361      13.19876983      21.28712693
Ag      17.26385284      11.16325934      21.30591752
Ag      17.25783926      13.19215459      19.27798118
Ag      15.22493232      11.18420289      23.30058341
Ag      15.22495656      13.20858928      25.33367893
Ag      17.22252323      11.20832040      25.29845608
Ag      17.24484819      13.20514597      23.31135024
Ag      15.22498871      17.24140323       5.11628620
Ag      17.24140196      15.22499810       5.11628017
Ag      15.22493812      15.22498192       7.13055042
Ag      15.22492409      17.25120164       9.16290756
Ag      17.25122707      15.22500041       9.16286705
Ag      17.24484568      17.24485075       7.13865324
Ag      15.22497320      15.22500580      11.18228858
Ag      15.22497509      17.25385544      13.19614434
Ag      17.25384317      15.22499940      13.19615098
Ag      17.25784168      17.25784574      11.17201750
Ag      15.22496178      15.22499947      15.22500000
Ag      15.22497509      17.25385544      17.25385566
Ag      17.25384317      15.22499940      17.25384902
Ag      17.25384383      17.25384878      15.22500000
Ag      15.22497320      15.22500580      19.26771142
Ag      15.22492409      17.25120164      21.28709244
Ag      17.25122707      15.22500041      21.28713295
Ag      17.25784168      17.25784574      19.27798250
Ag      15.22493812      15.22498192      23.31944958
Ag      15.22498871      17.24140323      25.33371380
Ag      17.24140196      15.22499810      25.33371983
Ag      17.24484568      17.24485075      23.31134676
Ag      15.22499657      21.24313902       5.19234733
Ag      17.22252979      19.24168026       5.15153922
Ag      15.22498578      19.26580227       7.14938412
Ag      15.22498709      21.30593371       9.14406436
Ag      17.26384944      19.28673635       9.14408632
Ag      17.25654020      21.29669876       7.12823753
Ag      15.22492795      19.28252320      11.16746777
Ag      15.22493750      21.28708982      13.19878511
Ag      17.25784142      19.27798185      13.19215437
Ag      17.26385017      21.30591318      11.16326258
Ag      15.22496591      19.26769978      15.22500000
Ag      15.22493750      21.28708982      17.25121489
Ag      17.25784142      19.27798185      17.25784563
Ag      17.25122669      21.28713152      15.22500000
Ag      15.22492795      19.28252320      19.28253223
Ag      15.22498709      21.30593371      21.30593564
Ag      17.26384944      19.28673635      21.30591368
Ag      17.26385017      21.30591318      19.28673742
Ag      15.22498578      19.26580227      23.30061588
Ag      15.22499657      21.24313902      25.25765267
Ag      17.22252979      19.24168026      25.29846078
Ag      17.25654020      21.29669876      23.32176247
Ag      15.22499723      23.28432319       7.16567630
Ag      15.22499769      25.25765326       9.20685975
Ag      17.25654042      23.32176236       9.15330095
Ag      15.22498963      23.30061605      11.18419395
Ag      15.22499487      25.33371784      13.20859250
Ag      17.24484803      23.31134694      13.20514760
Ag      17.22253046      25.29846111      11.20831921
Ag      15.22496132      23.31945122      15.22500000
Ag      15.22499487      25.33371784      17.24140750
Ag      17.24484803      23.31134694      17.24485240
Ag      17.24140529      25.33372136      15.22500000
Ag      15.22498963      23.30061605      19.26580605
Ag      15.22499769      25.25765326      21.24314025
Ag      17.25654042      23.32176236      21.29669905
Ag      17.22253046      25.29846111      19.24168079
Ag      15.22499723      23.28432319      23.28432370
Ag      19.24168024       5.15153829      13.22746843
Ag      19.24168024       5.15153829      17.22253157
Ag      21.24314151       5.19234412      15.22500000
Ag      19.28577296       9.14298403       9.14298413
Ag      19.27287239       7.11964941      11.17712658
Ag      19.28673906       9.14408276      13.18614289
Ag      21.29669952       7.12823678      13.19345826
Ag      21.30701571       9.14298416      11.16422627
Ag      19.26580944       7.14937506      15.22500000
Ag      19.28673906       9.14408276      17.26385711
Ag      21.29669952       7.12823678      17.25654174
Ag      21.30594268       9.14405724      15.22500000
Ag      19.27287239       7.11964941      19.27287342
Ag      19.28577296       9.14298403      21.30701587
Ag      21.30701571       9.14298416      19.28577373
Ag      19.24168040      13.22746842       5.15153826
Ag      19.27287256      11.17712654       7.11964961
Ag      19.28673924      13.18614281       9.14408285
Ag      21.30701573      11.16422626       9.14298417
Ag      21.29669955      13.19345825       7.12823679
Ag      19.29019615      11.15980309      11.15980317
Ag      19.27798101      13.19215477      13.19215485
Ag      21.30591714      11.16326010      13.18614285
Ag      21.30591715      13.18614285      11.16326011
Ag      19.28256053      11.16743866      15.22500000
Ag      19.27798101      13.19215477      17.25784515
Ag      21.30591714      11.16326010      17.26385715
Ag      21.28713290      13.19876885      15.22500000
Ag      19.29019615      11.15980309      19.29019683
Ag      19.28673924      13.18614281      21.30591715
Ag      21.30701573      11.16422626      21.30701583
Ag      21.30591715      13.18614285      19.28673989
Ag      19.27287256      11.17712654      23.33035039
Ag      19.24168040      13.22746842      25.29846174
Ag      21.29669955      13.19345825      23.32176321
Ag      19.24168033      17.22253120       5.15153843
Ag      21.24314155      15.22499999       5.19234410
Ag      19.26580977      15.22499997       7.14937506
Ag      19.28673952      17.26385717       9.14408276
Ag      21.30594269      15.22499999       9.14405725
Ag      21.29669957      17.25654174       7.12823677
Ag      19.28256063      15.22499993      11.16743877
Ag      19.27798107      17.25784509      13.19215485
Ag      21.28713290      15.22499999      13.19876885
Ag      21.30591715      17.26385714      11.16326011
Ag      19.26770473      15.22499993      15.22500000
Ag      19.27798107      17.25784509      17.25784515
Ag      21.28713290      15.22499999      17.25123115
Ag      21.28713291      17.25123114      15.22500000
Ag      19.28256063      15.22499993      19.28256123
Ag      19.28673952      17.26385717      21.30591724
Ag      21.30594269      15.22499999      21.30594275
Ag      21.30591715      17.26385714      19.28673989
Ag      19.26580977      15.22499997      23.30062494
Ag      19.24168033      17.22253120      25.29846157
Ag      21.24314155      15.22499999      25.25765590
Ag      21.29669957      17.25654174      23.32176323
Ag      19.27287261      19.27287305       7.11965000
Ag      19.28577302      21.30701548       9.14298445
Ag      21.30701578      19.28577373       9.14298416
Ag      19.29019652      19.29019690      11.15980307
Ag      19.28673951      21.30591715      13.18614283
Ag      21.30591716      19.28673988      13.18614286
Ag      21.30701578      21.30701583      11.16422627
Ag      19.28256075      19.28256120      15.22500000
Ag      19.28673951      21.30591715      17.26385717
Ag      21.30591716      19.28673988      17.26385714
Ag      21.30594271      21.30594275      15.22500000
Ag      19.29019652      19.29019690      19.29019693
Ag      19.28577302      21.30701548      21.30701555
Ag      21.30701578      19.28577373      21.30701584
Ag      21.30701578      21.30701583      19.28577373
Ag      19.27287261      19.27287305      23.33035000
Ag      19.27287277      23.33034998      11.17712682
Ag      19.24168067      25.29846172      13.22746859
Ag      21.29669959      23.32176321      13.19345826
Ag      19.26580988      23.30062478      15.22500000
Ag      19.24168067      25.29846172      17.22253141
Ag      21.29669959      23.32176321      17.25654174
Ag      21.24314158      25.25765591      15.22500000
Ag      19.27287277      23.33034998      19.27287318
Ag      23.32176320       9.15330035      13.19345826
Ag      23.28432583       7.16567415      15.22500000
Ag      23.32176320       9.15330035      17.25654174
Ag      25.25765594       9.20685836      15.22500000
Ag      23.32176320      13.19345826       9.15330035
Ag      23.33035031      11.17712662      11.17712662
Ag      23.31135077      13.20514635      13.20514635
Ag      25.29846211      11.20831880      13.22746846
Ag      25.29846211      13.22746846      11.20831880
Ag      23.30062489      11.18418965      15.22500000
Ag      23.31135077      13.20514635      17.24485365
Ag      25.29846211      11.20831880      17.22253154
Ag      25.33372480      13.20859149      15.22500000
Ag      23.33035031      11.17712662      19.27287338
Ag      23.32176320      13.19345826      21.29669965
Ag      25.29846211      13.22746846      19.24168120
Ag      23.28432583      15.22500000       7.16567415
Ag      23.32176321      17.25654174       9.15330035
Ag      25.25765594      15.22500000       9.20685836
Ag      23.30062489      15.22500000      11.18418965
Ag      23.31135078      17.24485365      13.20514635
Ag      25.33372480      15.22500000      13.20859149
Ag      25.29846211      17.22253154      11.20831880
Ag      23.31948862      15.22500000      15.22500000
Ag      23.31135078      17.24485365      17.24485365
Ag      25.33372480      15.22500000      17.24140851
Ag      25.33372480      17.24140851      15.22500000
Ag      23.30062489      15.22500000      19.26581035
Ag      23.32176321      17.25654174      21.29669965
Ag      25.25765594      15.22500000      21.24314164
Ag      25.29846211      17.22253154      19.24168120
Ag      23.28432583      15.22500000      23.28432585
Ag      23.33035031      19.27287338      11.17712662
Ag      23.32176321      21.29669964      13.19345826
Ag      25.29846211      19.24168120      13.22746846
Ag      23.30062489      19.26581035      15.22500000
Ag      23.32176321      21.29669964      17.25654174
Ag      25.29846211      19.24168120      17.22253154
Ag      25.25765594      21.24314164      15.22500000
Ag      23.33035031      19.27287338      19.27287338
Ag      23.28432584      23.28432585      15.22500000
